Version 4
SHEET 1 1092 680
WIRE 720 -256 720 -400
WIRE 720 -160 720 -192
WIRE 720 -64 720 -96
WIRE 544 -16 528 -16
WIRE 656 -16 624 -16
WIRE -128 96 -128 32
WIRE -32 96 -32 32
WIRE 720 112 720 32
WIRE -128 224 -128 176
WIRE -32 224 -32 176
FLAG -128 224 0
FLAG -128 32 VCC
FLAG -32 224 0
FLAG -32 32 GPIO
FLAG 720 -400 VCC
FLAG 720 112 0
FLAG 528 -16 GPIO
SYMBOL voltage -128 80 R0
WINDOW 123 0 0 Left 0
WINDOW 39 0 0 Left 0
SYMATTR InstName V1
SYMATTR Value 12
SYMBOL voltage -32 80 R0
WINDOW 123 0 0 Left 0
WINDOW 39 0 0 Left 0
SYMATTR InstName V2
SYMATTR Value PULSE(0 3.3 0 1p 1p 0.5 1)
SYMBOL npn 656 -64 R0
SYMATTR InstName Q1
SYMATTR Value 2N2219A
SYMBOL LED 704 -160 R0
SYMATTR InstName D1
SYMATTR Value NSCW100
SYMBOL res 640 -32 R90
WINDOW 0 0 56 VBottom 2
WINDOW 3 32 56 VTop 2
SYMATTR InstName R1
SYMATTR Value 10k
SYMBOL LED 704 -256 R0
SYMATTR InstName D2
SYMATTR Value NSCW100
TEXT -64 288 Left 2 !.tran 1
TEXT -168 352 Left 2 ;https://www.electricalelibrary.com/en/2018/07/02/how-to-polarize-the-bjt-transistor-part-1/
