Version 4
SHEET 1 1092 680
WIRE 720 -352 720 -400
WIRE 720 -256 720 -272
WIRE 720 -256 624 -256
WIRE 800 -256 720 -256
WIRE 624 -160 624 -192
WIRE 800 -160 800 -192
WIRE 720 -96 624 -96
WIRE 800 -96 720 -96
WIRE 720 -48 720 -96
WIRE 720 48 720 32
WIRE -128 96 -128 32
WIRE -32 96 -32 32
WIRE 544 96 528 96
WIRE 656 96 624 96
WIRE -128 224 -128 176
WIRE -32 224 -32 176
WIRE 720 224 720 144
FLAG -128 224 0
FLAG -128 32 VCC
FLAG -32 224 0
FLAG -32 32 GPIO
FLAG 720 -400 VCC
FLAG 720 224 0
FLAG 528 96 GPIO
SYMBOL voltage -128 80 R0
WINDOW 123 0 0 Left 0
WINDOW 39 0 0 Left 0
SYMATTR InstName V1
SYMATTR Value 12
SYMBOL voltage -32 80 R0
WINDOW 123 0 0 Left 0
WINDOW 39 0 0 Left 0
SYMATTR InstName V2
SYMATTR Value PULSE(0 3.3 0 1u 1u 0.5 1)
SYMBOL npn 656 48 R0
SYMATTR InstName Q1
SYMATTR Value 2N2219A
SYMBOL res 640 80 R90
WINDOW 0 0 56 VBottom 2
WINDOW 3 32 56 VTop 2
SYMATTR InstName R1
SYMATTR Value 22
SYMBOL LED 608 -160 R0
SYMATTR InstName D1
SYMATTR Value NSCW100
SYMBOL LED 608 -256 R0
SYMATTR InstName D2
SYMATTR Value NSCW100
SYMBOL LED 784 -256 R0
SYMATTR InstName D3
SYMATTR Value NSCW100
SYMBOL LED 784 -160 R0
SYMATTR InstName D4
SYMATTR Value NSCW100
SYMBOL res 736 -256 R180
WINDOW 0 36 76 Left 2
WINDOW 3 36 40 Left 2
SYMATTR InstName R2
SYMATTR Value 75
SYMBOL res 736 48 R180
WINDOW 0 36 76 Left 2
WINDOW 3 36 40 Left 2
SYMATTR InstName R3
SYMATTR Value 75
TEXT -64 288 Left 2 !.tran 1
TEXT -168 352 Left 2 ;https://www.electricalelibrary.com/en/2018/07/02/how-to-polarize-the-bjt-transistor-part-1/
